*GROWTH AND BIOMASS OUTPUT
@  DAY  DATE       TOTBIO LEAFBIO STEMBIO ROOTBIO DTGROW DLEAF  DSTEM  DROOT
    1 2025-08-20    0.0     0.0     0.0     0.0  0.049  0.031  0.010  0.008
    2 2025-08-21    0.1     0.1     0.0     0.0  0.058  0.036  0.012  0.010
    3 2025-08-22    0.2     0.1     0.0     0.0  0.058  0.036  0.012  0.010
    4 2025-08-23    0.2     0.1     0.0     0.0  0.058  0.036  0.012  0.010
    5 2025-08-24    0.3     0.2     0.1     0.0  0.058  0.036  0.012  0.010
    6 2025-08-25    0.3     0.2     0.1     0.1  0.058  0.036  0.012  0.010
    7 2025-08-26    0.4     0.2     0.1     0.1  0.058  0.036  0.012  0.010
    8 2025-08-27    0.5     0.3     0.1     0.1  0.058  0.036  0.012  0.010
    9 2025-08-28    0.5     0.3     0.1     0.1  0.058  0.036  0.012  0.010
   10 2025-08-29    0.6     0.4     0.1     0.1  0.058  0.036  0.012  0.009
   11 2025-08-30    0.6     0.4     0.1     0.1  0.058  0.036  0.012  0.010
   12 2025-08-31    0.7     0.4     0.1     0.1  0.058  0.036  0.012  0.010
   13 2025-09-01    0.7     0.5     0.2     0.1  0.058  0.036  0.012  0.010
   14 2025-09-02    0.8     0.5     0.2     0.1  0.058  0.036  0.012  0.010
   15 2025-09-03    0.9     0.5     0.2     0.1  0.058  0.036  0.012  0.009
   16 2025-09-04    0.9     0.6     0.2     0.2  0.058  0.036  0.012  0.009
   17 2025-09-05    1.0     0.6     0.2     0.2  0.058  0.036  0.012  0.010
   18 2025-09-06    1.0     0.6     0.2     0.2  0.058  0.036  0.012  0.010
   19 2025-09-07    1.1     0.7     0.2     0.2  0.058  0.036  0.012  0.010
   20 2025-09-08    1.2     0.7     0.2     0.2  0.058  0.036  0.012  0.010
   21 2025-09-09    1.2     0.8     0.3     0.2  0.058  0.036  0.012  0.009
   22 2025-09-10    1.3     0.8     0.3     0.2  0.058  0.036  0.012  0.010
   23 2025-09-11    1.3     0.8     0.3     0.2  0.058  0.036  0.012  0.010
   24 2025-09-12    1.4     0.9     0.3     0.2  0.058  0.036  0.012  0.009
   25 2025-09-13    1.4     0.9     0.3     0.2  0.058  0.036  0.012  0.010
   26 2025-09-14    1.5     0.9     0.3     0.2  0.046  0.029  0.010  0.008
   27 2025-09-15    1.5     1.0     0.3     0.3  0.047  0.029  0.010  0.008
   28 2025-09-16    1.6     1.0     0.3     0.3  0.046  0.029  0.010  0.008
   29 2025-09-17    1.6     1.0     0.3     0.3  0.046  0.029  0.010  0.008
   30 2025-09-18    1.7     1.0     0.4     0.3  0.036  0.023  0.007  0.006
   31 2025-09-19    1.7     1.1     0.4     0.3  0.036  0.023  0.007  0.006
   32 2025-09-20    1.7     1.1     0.4     0.3  0.036  0.023  0.007  0.006
   33 2025-09-21    1.8     1.1     0.4     0.3  0.036  0.023  0.007  0.006
   34 2025-09-22    1.8     1.1     0.4     0.3  0.036  0.023  0.007  0.006
   35 2025-09-23    1.8     1.2     0.4     0.3  0.036  0.023  0.007  0.006
   36 2025-09-24    1.9     1.2     0.4     0.3  0.024  0.015  0.005  0.004
   37 2025-09-25    1.9     1.2     0.4     0.3  0.024  0.015  0.005  0.004
   38 2025-09-26    1.9     1.2     0.4     0.3  0.024  0.015  0.005  0.004
   39 2025-09-27    1.9     1.2     0.4     0.3  0.024  0.015  0.005  0.004