*GROWTH AND BIOMASS OUTPUT
@  DAY  DATE       TOTBIO LEAFBIO STEMBIO ROOTBIO DTGROW DLEAF  DSTEM  DROOT
    1 2025-08-19    0.0     0.0     0.0     0.0  0.019  0.009  0.004  0.007
    2 2025-08-20    0.0     0.0     0.0     0.0  0.029  0.014  0.006  0.010
    3 2025-08-21    0.1     0.0     0.0     0.0  0.029  0.014  0.006  0.010
    4 2025-08-22    0.1     0.1     0.0     0.0  0.029  0.014  0.006  0.010
    5 2025-08-23    0.1     0.1     0.0     0.0  0.029  0.014  0.006  0.010
    6 2025-08-24    0.2     0.1     0.0     0.1  0.029  0.014  0.006  0.009
    7 2025-08-25    0.2     0.1     0.0     0.1  0.029  0.014  0.006  0.010
    8 2025-08-26    0.2     0.1     0.0     0.1  0.029  0.014  0.005  0.009
    9 2025-08-27    0.2     0.1     0.0     0.1  0.029  0.014  0.006  0.010
   10 2025-08-28    0.3     0.1     0.1     0.1  0.029  0.014  0.006  0.010
   11 2025-08-29    0.3     0.1     0.1     0.1  0.029  0.014  0.006  0.010
   12 2025-08-30    0.3     0.2     0.1     0.1  0.029  0.014  0.006  0.010
   13 2025-08-31    0.4     0.2     0.1     0.1  0.029  0.014  0.006  0.010
   14 2025-09-01    0.4     0.2     0.1     0.1  0.029  0.014  0.005  0.009
   15 2025-09-02    0.4     0.2     0.1     0.1  0.029  0.014  0.006  0.010
   16 2025-09-03    0.5     0.2     0.1     0.1  0.029  0.014  0.005  0.009
   17 2025-09-04    0.5     0.2     0.1     0.2  0.029  0.014  0.006  0.010
   18 2025-09-05    0.5     0.2     0.1     0.2  0.029  0.014  0.006  0.010
   19 2025-09-06    0.5     0.3     0.1     0.2  0.029  0.014  0.005  0.009
   20 2025-09-07    0.6     0.3     0.1     0.2  0.029  0.014  0.006  0.009
   21 2025-09-08    0.6     0.3     0.1     0.2  0.029  0.014  0.005  0.009
   22 2025-09-09    0.6     0.3     0.1     0.2  0.029  0.014  0.006  0.010
   23 2025-09-10    0.7     0.3     0.1     0.2  0.029  0.014  0.006  0.010
   24 2025-09-11    0.7     0.3     0.1     0.2  0.029  0.014  0.006  0.010
   25 2025-09-12    0.7     0.3     0.1     0.2  0.029  0.014  0.006  0.010
   26 2025-09-13    0.7     0.4     0.1     0.2  0.029  0.014  0.006  0.010
   27 2025-09-14    0.8     0.4     0.1     0.3  0.029  0.014  0.005  0.009
   28 2025-09-15    0.8     0.4     0.2     0.3  0.029  0.014  0.005  0.009
   29 2025-09-16    0.8     0.4     0.2     0.3  0.029  0.014  0.006  0.010
   30 2025-09-17    0.8     0.4     0.2     0.3  0.018  0.008  0.003  0.006
   31 2025-09-18    0.9     0.4     0.2     0.3  0.018  0.008  0.003  0.006
   32 2025-09-19    0.9     0.4     0.2     0.3  0.018  0.008  0.003  0.006
   33 2025-09-20    0.9     0.4     0.2     0.3  0.018  0.008  0.003  0.006
   34 2025-09-21    0.9     0.4     0.2     0.3  0.018  0.008  0.003  0.006
   35 2025-09-22    0.9     0.4     0.2     0.3  0.018  0.008  0.003  0.006
   36 2025-09-23    1.0     0.5     0.2     0.3  0.018  0.008  0.003  0.006
   37 2025-09-24    1.0     0.5     0.2     0.3  0.018  0.008  0.003  0.006
   38 2025-09-25    1.0     0.5     0.2     0.3  0.018  0.008  0.003  0.006
   39 2025-09-26    1.0     0.5     0.2     0.3  0.018  0.008  0.003  0.006